/*--------------------------------*- C++ -*----------------------------------*\
  =========                 |
  \\      /  F ield         | OpenFOAM: The Open Source CFD Toolbox
   \\    /   O peration     | Website:  https://openfoam.org
    \\  /    A nd           | Version:  8
     \\/     M anipulation  |
\*---------------------------------------------------------------------------*/
FoamFile
{
    version     2.0;
    format      ascii;
    class       extendedFeatureEdgeMesh;
    location    "constant/extendedFeatureEdgeMesh";
    object      atmosphere.extendedFeatureEdgeMesh;
}
// * * * * * * * * * * * * * * * * * * * * * * * * * * * * * * * * * * * * * //

// points

12
(
(5.6999998 0 0.17200001)
(5.6999998 0.0814 0.17200001)
(0 0.0814 0.17200001)
(0 0 0.17200001)
(5.1739998 0.0814 0.17200001)
(5.1739998 0 0.17200001)
(5.0560002 0.022700001 0.17200001)
(5.0560002 0.058699999 0.17200001)
(5 0.022700001 0.17200001)
(5 0.058699999 0.17200001)
(4.8000002 0 0.17200001)
(4.8000002 0.0814 0.17200001)
)

// edges

12
(
(0 1)
(1 4)
(5 0)
(6 5)
(4 7)
(8 6)
(7 9)
(10 8)
(9 11)
(2 3)
(3 10)
(11 2)
)

// concaveStart mixedStart nonFeatureStart
0 0 4
// internalStart flatStart openStart multipleStart
0 0 0 12
// normals
10{(-0 0 1)}
// normal volume types

10
(
0
0
0
0
0
0
0
0
0
0
)

// normalDirections

12
(
1(1)
1(1)
1(1)
1(1)
1(1)
1(1)
1(1)
1(1)
1(1)
1(1)
1(1)
1(1)
)

// edgeNormals

12
(
1(0)
1(0)
1(1)
1(2)
1(3)
1(4)
1(5)
1(6)
1(7)
1(8)
1(8)
1(9)
)

// featurePointNormals

4
(
1(0)
1(0)
1(8)
1(8)
)

// featurePointEdges

4
(
2(0 2)
2(0 1)
2(9 11)
2(9 10)
)

// regionEdges

12
(
0
1
2
3
4
5
6
7
8
9
10
11
)



// ************************************************************************* //
