/*--------------------------------*- C++ -*----------------------------------*\
  =========                 |
  \\      /  F ield         | OpenFOAM: The Open Source CFD Toolbox
   \\    /   O peration     | Website:  https://openfoam.org
    \\  /    A nd           | Version:  8
     \\/     M anipulation  |
\*---------------------------------------------------------------------------*/
FoamFile
{
    version     2.0;
    format      ascii;
    class       extendedFeatureEdgeMesh;
    location    "constant/extendedFeatureEdgeMesh";
    object      parshall.extendedFeatureEdgeMesh;
}
// * * * * * * * * * * * * * * * * * * * * * * * * * * * * * * * * * * * * * //

// points

28
(
(0 0 0)
(0 0 0.17200001)
(0 0.0814 0.17200001)
(0 0.0814 0)
(5.6999998 0 0.17200001)
(5.6999998 0.0814 0.17200001)
(5.0560002 0.022700001 -0.0792)
(5.0560002 0.058699999 -0.0792)
(5.6999998 0 -0.16)
(5.474 0 -0.16)
(5.6999998 0.0814 -0.16)
(5.474 0.0814 -0.16)
(5.474 0 -0.059999999)
(5.474 0.0814 -0.059999999)
(5.1739998 0.0814 0.17200001)
(5.1739998 0 0.17200001)
(5.0560002 0.022700001 0.17200001)
(5.0560002 0.058699999 0.17200001)
(5 0.022700001 0.17200001)
(5 0.058699999 0.17200001)
(4.8000002 0 0.17200001)
(4.8000002 0.0814 0.17200001)
(4.8000002 0.0814 -0.048)
(4.8000002 0 -0.048)
(5 0.022700001 -0.048)
(5 0.058699999 -0.048)
(5.1739998 0 -0.057)
(5.1739998 0.0814 -0.057)
)

// edges

35
(
(1 2)
(0 1)
(2 3)
(3 0)
(5 14)
(4 5)
(15 4)
(16 15)
(14 17)
(18 16)
(17 19)
(20 18)
(19 21)
(1 20)
(21 2)
(22 3)
(23 0)
(23 24)
(25 22)
(24 6)
(7 25)
(6 26)
(27 7)
(26 12)
(12 9)
(9 8)
(8 4)
(13 27)
(11 13)
(10 11)
(5 10)
(7 6)
(8 10)
(11 9)
(13 12)
)

// concaveStart mixedStart nonFeatureStart
12 12 14
// internalStart flatStart openStart multipleStart
34 35 35 35
// normals

52
(
(-1 0 0)
(0 0 1)
(-0 -1 0)
(-1 0 0)
(0 1 0)
(-0.0099994997 -0 -0.99995)
(-0 0 1)
(0 1 -0)
(1 0 0)
(0 0 1)
(-0 -1 0)
(0 0 1)
(-0.18890982 -0.98199444 0)
(-0 0 1)
(-0.18890982 0.98199444 0)
(0 0 1)
(0 -1 0)
(-0 0 1)
(0 1 0)
(0 0 1)
(0.11277603 -0.99362043 0)
(0 0 1)
(0.11277603 0.99362043 -0)
(-0 0 1)
(0 1 0)
(-0.0099994997 0 -0.99995)
(0 -1 -0)
(0.11277603 -0.99362043 0)
(0 0 -1)
(0.11277603 0.99362043 0)
(0 0 -1)
(0 -1 0)
(-0.4867006 -0 -0.87356884)
(-0 1 0)
(-0.4867006 0 -0.87356884)
(-0.18890982 -0.98199444 0)
(0.18489259 0 -0.98275873)
(-0.18890982 0.98199444 0)
(0.18489259 0 -0.98275873)
(0 -1 0)
(-0.0099994891 -0 -0.99995)
(0 -1 0)
(-1 0 0)
(0 -0 -1)
(0 -1 -0)
(0 1 0)
(-0.0099994891 0 -0.99995)
(0 1 0)
(-1 0 0)
(-0 0 -1)
(0 1 -0)
(1 0 0)
)

// normal volume types

52
(
0
0
0
0
0
0
0
0
0
0
0
0
0
0
0
0
0
0
0
0
0
0
0
0
0
0
0
0
0
0
0
0
0
0
0
0
0
0
0
0
0
0
0
0
0
0
0
0
0
0
0
0
)

// normalDirections

35
(
2(1 -1)
2(1 -1)
2(1 -1)
2(1 -1)
2(1 -1)
2(1 -1)
2(1 -1)
2(1 -1)
2(1 -1)
2(1 -1)
2(1 -1)
2(1 -1)
2(1 -1)
2(1 -1)
2(1 -1)
2(1 -1)
2(1 -1)
2(1 -1)
2(1 -1)
2(1 -1)
2(1 -1)
2(1 -1)
2(1 -1)
2(1 -1)
2(1 -1)
2(1 -1)
2(1 -1)
2(1 -1)
2(1 -1)
2(1 -1)
2(1 -1)
2(1 -1)
2(1 -1)
2(1 -1)
2(1 -1)
)

// edgeNormals

35
(
2(0 1)
2(0 2)
2(3 4)
2(3 5)
2(6 7)
2(6 8)
2(9 10)
2(11 12)
2(13 14)
2(15 16)
2(17 18)
2(19 20)
2(21 22)
2(1 2)
2(23 4)
2(24 25)
2(5 26)
2(27 28)
2(29 30)
2(31 32)
2(33 34)
2(35 36)
2(37 38)
2(39 40)
2(41 42)
2(41 43)
2(44 8)
2(45 46)
2(47 48)
2(47 49)
2(50 51)
2(34 36)
2(51 43)
2(42 49)
2(46 48)
)

// featurePointNormals

14
(
3(0 2 5)
3(0 1 2)
3(0 1 4)
3(3 4 5)
3(6 8 10)
3(6 7 8)
4(31 32 35 36)
4(33 34 37 38)
3(41 43 8)
3(41 42 43)
3(47 49 51)
3(47 48 49)
3(39 40 42)
3(45 46 48)
)

// featurePointEdges

14
(
3(3 16 1)
3(0 13 1)
3(2 14 0)
3(2 15 3)
3(6 26 5)
3(4 30 5)
3(21 31 19)
3(22 31 20)
3(26 32 25)
3(24 33 25)
3(30 32 29)
3(28 33 29)
3(24 34 23)
3(27 34 28)
)

// regionEdges
0()


// ************************************************************************* //
