/*--------------------------------*- C++ -*----------------------------------*\
  =========                 |
  \\      /  F ield         | OpenFOAM: The Open Source CFD Toolbox
   \\    /   O peration     | Website:  https://openfoam.org
    \\  /    A nd           | Version:  8
     \\/     M anipulation  |
\*---------------------------------------------------------------------------*/
FoamFile
{
    version     2.0;
    format      ascii;
    class       extendedFeatureEdgeMesh;
    location    "constant/extendedFeatureEdgeMesh";
    object      wall.extendedFeatureEdgeMesh;
}
// * * * * * * * * * * * * * * * * * * * * * * * * * * * * * * * * * * * * * //

// points

28
(
(5.0560002 0.022700001 -0.0792)
(5.0560002 0.058699999 -0.0792)
(5.474 0 -0.16)
(5.474 0.0814 -0.16)
(0 0.0814 0)
(0 0.0814 0.17200001)
(0 0 0)
(0 0 0.17200001)
(5.474 0 -0.059999999)
(5.6999998 0 -0.16)
(5.6999998 0 0.17200001)
(5.474 0.0814 -0.059999999)
(5.6999998 0.0814 0.17200001)
(5.6999998 0.0814 -0.16)
(4.8000002 0.0814 0.17200001)
(4.8000002 0 0.17200001)
(5 0.022700001 0.17200001)
(5 0.058699999 0.17200001)
(5.0560002 0.022700001 0.17200001)
(5.0560002 0.058699999 0.17200001)
(5.1739998 0 0.17200001)
(5.1739998 0.0814 0.17200001)
(4.8000002 0.0814 -0.048)
(4.8000002 0 -0.048)
(5 0.022700001 -0.048)
(5 0.058699999 -0.048)
(5.1739998 0 -0.057)
(5.1739998 0.0814 -0.057)
)

// edges

33
(
(22 4)
(23 6)
(23 24)
(25 22)
(24 0)
(1 25)
(0 26)
(27 1)
(26 8)
(8 2)
(2 9)
(11 27)
(3 11)
(13 3)
(1 0)
(3 2)
(11 8)
(4 5)
(5 14)
(6 4)
(15 7)
(7 6)
(16 15)
(14 17)
(18 16)
(17 19)
(20 18)
(19 21)
(9 10)
(10 20)
(21 12)
(12 13)
(13 9)
)

// concaveStart mixedStart nonFeatureStart
4 4 14
// internalStart flatStart openStart multipleStart
16 17 17 33
// normals

38
(
(0 1 0)
(-0.0099994997 -0 -0.99995)
(-0 -1 0)
(0.11277603 -0.99362043 0)
(0.11277603 0.99362043 -0)
(0 -1 0)
(0 1 0)
(-0.18890982 -0.98199444 0)
(-0.18890982 0.98199444 0)
(0 -1 -0)
(-0 -1 0)
(0 1 -0)
(0 1 -0)
(0 -0 -1)
(0 1 0)
(-0.0099994997 0 -0.99995)
(0 -1 -0)
(0.11277603 -0.99362043 0)
(0 0 -1)
(0.11277603 0.99362043 0)
(0 0 -1)
(0 -1 0)
(-0.4867006 -0 -0.87356884)
(-0 1 0)
(-0.4867006 0 -0.87356884)
(-0.18890982 -0.98199444 0)
(0.18489259 0 -0.98275873)
(-0.18890982 0.98199444 0)
(0.18489259 0 -0.98275873)
(0 -1 0)
(-0.0099994891 -0 -0.99995)
(0 -1 0)
(-1 0 0)
(0 1 0)
(-0.0099994891 0 -0.99995)
(0 1 0)
(-1 0 0)
(-0 0 -1)
)

// normal volume types

38
(
0
0
0
0
0
0
0
0
0
0
0
0
0
0
0
0
0
0
0
0
0
0
0
0
0
0
0
0
0
0
0
0
0
0
0
0
0
0
)

// normalDirections

33
(
2(1 -1)
2(1 -1)
2(1 -1)
2(1 -1)
2(1 -1)
2(1 -1)
2(1 -1)
2(1 -1)
2(1 -1)
2(1 -1)
2(1 -1)
2(1 -1)
2(1 -1)
2(1 -1)
2(1 -1)
2(1 -1)
2(1 -1)
1(1)
1(1)
1(1)
1(1)
1(1)
1(1)
1(1)
1(1)
1(1)
1(1)
1(1)
1(1)
1(1)
1(1)
1(1)
1(1)
)

// edgeNormals

33
(
2(14 15)
2(1 16)
2(17 18)
2(19 20)
2(21 22)
2(23 24)
2(25 26)
2(27 28)
2(29 30)
2(31 32)
2(31 13)
2(33 34)
2(35 36)
2(35 37)
2(24 26)
2(32 37)
2(34 36)
1(0)
1(0)
1(1)
1(2)
1(2)
1(3)
1(4)
1(5)
1(6)
1(7)
1(8)
1(9)
1(10)
1(11)
1(12)
1(13)
)

// featurePointNormals

14
(
4(21 22 25 26)
4(23 24 27 28)
3(31 32 13)
3(35 36 37)
2(14 15)
1(0)
2(1 16)
1(2)
3(29 30 32)
2(31 13)
1(9)
3(33 34 36)
1(11)
2(35 37)
)

// featurePointEdges

14
(
3(6 14 4)
3(7 14 5)
3(9 15 10)
3(12 15 13)
3(0 17 19)
2(17 18)
3(1 19 21)
2(20 21)
3(9 16 8)
3(10 28 32)
2(28 29)
3(11 16 12)
2(30 31)
3(13 31 32)
)

// regionEdges

16
(
17
18
19
20
21
22
23
24
25
26
27
28
29
30
31
32
)



// ************************************************************************* //
